/*--------------------------------*- C++ -*----------------------------------*\
| =========                 |                                                 |
| \\      /  F ield         | OpenFOAM: The Open Source CFD Toolbox           |
|  \\    /   O peration     | Version:  v2312                                 |
|   \\  /    A nd           | Website:  www.openfoam.com                      |
|    \\/     M anipulation  |                                                 |
\*---------------------------------------------------------------------------*/
FoamFile
{
    version     2.0;
    format      ascii;
    class       dictionary;
    object      blockMeshDict;
}
// * * * * * * * * * * * * * * * * * * * * * * * * * * * * * * * * * * * * * //

scale   1;

vertices
(
    ( -1000.00  -1600.0  -1000)//0
    ( 1600.00  -1600.0  -1000)	//4
    ( 1600.00  1600.0  -1000)	//7
    ( -1000.00  1600.0  -1000)	//3
    ( -1000.00  -1600.0  2000) // 2
    ( 1600.00  -1600.0  2000)	//6
    ( 1600.00  1600.0  2000)	//5
    ( -1000.00  1600.0  2000) 	//1	
    
    /*( -1000.00  -1600.0  -1000)//0
    ( -1000.00  1600.0  2000) 	//1
    ( -1000.00  -1600.0  2000) // 2
    ( -1000.00  1600.0  -1000)	//3
    ( 1600.00  -1600.0  -1000)	//4
    ( 1600.00  1600.0  2000)	//5
    ( 1600.00  -1600.0  2000)	//6
    ( 1600.00  1600.0  -1000)	//7 */
    
);

blocks
(
    hex (0 1 2 3 4 5 6 7) (20 8 8) simpleGrading (1 1 1)
);

edges
(
);

boundary
(
    frontAndBack
    {
        type patch;
        faces
        (
            (3 7 6 2)
            (1 5 4 0)
        );
    }
    inlet
    {
        type patch;
        faces
        (
            /*(0 4 7 3)*/
            (0 3 2 1)
        );
    }
    outlet
    {
        type patch;
        faces
        (
            /*(2 6 5 1)*/
            (4 5 6 7)
        );
    }
    lowerWall
    {
        type wall;
        faces
        (
            /*(0 3 2 1)*/
            (2 6 5 1)
        );
    }
    upperWall
    {
        type patch;
        faces
        (
            /*(4 5 6 7)*/
            (0 4 7 3)
        );
    }
);


// ************************************************************************* //
